<LinearLayout xmlns:android="http://schemas.android.com/apk/res/android"
    xmlns:tools="http://schemas.android.com/tools"
    android:layout_width="match_parent"
    android:orientation="vertical"
    android:layout_height="match_parent"
    tools:context="net.coding.program.maopao.MaopaoAddActivity">

    <LinearLayout
        android:id="@+id/emojiLayout"
        android:layout_width="match_parent"
        android:layout_height="0dp"
        android:layout_weight="1"
        android:minHeight="150dp"
        android:orientation="horizontal">

        <EditText
            android:id="@+id/comment"
            android:layout_width="match_parent"
            android:layout_height="wrap_content"
            android:background="@null"
            android:gravity="top|left"
            android:hint="来，发个冒泡吧~"
            android:paddingLeft="12dp"
            android:paddingRight="12dp"
            android:paddingTop="14dp"
            android:textSize="16sp" />

        <RelativeLayout
            android:layout_width="54dp"
            android:layout_height="42dp"
            android:layout_gravity="center_vertical"
            android:layout_marginRight="2dp"
            android:visibility="gone">

            <ImageButton
                android:id="@+id/send"
                android:layout_width="32dp"
                android:layout_height="32dp"
                android:layout_centerInParent="true"
                android:background="@drawable/message_button_add"
                android:padding="5dp" />

            <TextView
                android:id="@+id/sendText"
                android:layout_width="wrap_content"
                android:layout_height="wrap_content"
                android:layout_centerInParent="true"
                android:background="@drawable/edit_send_green"
                android:gravity="center"
                android:padding="5dp"
                android:text="发送"
                android:textColor="@color/white"
                android:visibility="gone" />
        </RelativeLayout>
    </LinearLayout>

    <net.coding.program.common.AutoHeightGridView
        android:id="@+id/gridView"
        android:layout_width="match_parent"
        android:layout_height="wrap_content"
        android:layout_below="@id/emojiLayout"
        android:layout_marginLeft="12dp"
        android:layout_marginRight="12dp"
        android:layout_marginTop="10dp"
        android:columnWidth="@dimen/image_add_maopao_width"
        android:gravity="center"
        android:horizontalSpacing="8dp"
        android:numColumns="4"
        android:stretchMode="none"
        android:verticalSpacing="8dp" />

    <!--<View-->
        <!--android:layout_width="wrap_content"-->
        <!--android:layout_height="0dp"-->
        <!--android:layout_weight="1" />-->


    <TextView
        android:id="@+id/locationText"
        android:layout_width="wrap_content"
        android:background="@drawable/round_rect_maopao_local"
        android:layout_height="30dp"
        android:layout_marginTop="11dp"
        android:clickable="true"
        android:drawableLeft="@drawable/ic_location_inactive"
        android:drawablePadding="4dp"
        android:ellipsize="end"
        android:layout_marginBottom="15dp"
        android:layout_marginLeft="15dp"
        android:gravity="center_vertical"
        android:hint="@string/location_undefined"
        android:maxLines="1"
        android:paddingLeft="9dp"
        android:paddingRight="12dp"
        android:singleLine="true"
        android:text=""
        android:textColor="@color/font_black_content"
        android:textColorHint="@color/font_black_9"
        android:textSize="15sp" />

    <LinearLayout
        android:id="@+id/bottom_layout"
        android:layout_width="match_parent"
        android:layout_height="wrap_content"
        android:layout_alignParentBottom="true"
        android:orientation="vertical">

        <View
            android:layout_width="wrap_content"
            android:layout_height="0.5dp"
            android:background="#cfcfcf" />

        <LinearLayout
            android:layout_width="match_parent"
            android:layout_height="43dp"
            android:background="@color/input_background"
            android:gravity="center_vertical"
            android:orientation="horizontal"
            android:paddingLeft="12dp">

            <LinearLayout
                android:layout_width="0dp"
                android:layout_height="wrap_content"
                android:layout_weight="1"
                android:orientation="vertical">

                <CheckBox
                    android:id="@+id/popEmoji"
                    android:layout_width="32dp"
                    android:layout_height="32dp"
                    android:background="@null"
                    android:button="@drawable/checkbox_pop_emoji_big" />

            </LinearLayout>

            <LinearLayout
                android:layout_width="0dp"
                android:layout_height="wrap_content"
                android:layout_weight="1">

                <ImageView
                    android:id="@+id/popPhoto"
                    android:layout_width="32dp"
                    android:layout_height="32dp"
                    android:background="@drawable/pop_photo" />
            </LinearLayout>

            <LinearLayout
                android:layout_width="0dp"
                android:layout_height="wrap_content"
                android:layout_weight="1">

                <ImageView
                    android:id="@+id/popTopic"
                    android:layout_width="32dp"
                    android:layout_height="32dp"
                    android:background="@drawable/pop_topic" />

            </LinearLayout>

            <LinearLayout
                android:layout_width="0dp"
                android:layout_height="wrap_content"
                android:layout_weight="1">

                <ImageView
                    android:id="@+id/popAt"
                    android:layout_width="32dp"
                    android:layout_height="32dp"
                    android:background="@drawable/pop_at" />
            </LinearLayout>

            <LinearLayout
                android:layout_width="0dp"
                android:layout_height="match_parent"
                android:layout_weight="1">

            </LinearLayout>

        </LinearLayout>

        <View
            android:layout_width="wrap_content"
            android:layout_height="0.5dp"
            android:background="#cfcfcf" />

        <include
            layout="@layout/emoji_keyboard_content"
            android:visibility="gone" />

    </LinearLayout>

</LinearLayout>
